Circuit: * C:\users\iross\My Documents\projects\contextual-electronics\current-sink-or-swim\simulations\simulation-1.asc

Direct Newton iteration failed to find .op point.  (Use ".option noopiter" to skip.)
Starting Gmin stepping
Gmin = 10
Gmin = 1.07374
Gmin = 0.115292
Gmin = 0.0123794
Gmin = 0.00132923
Gmin = 0.000142725
Gmin = 1.5325e-005
Gmin = 1.6455e-006
Gmin = 1.76685e-007
Gmin = 1.89714e-008
Gmin = 2.03704e-009
Gmin = 2.18725e-010
Gmin = 2.34854e-011
Gmin = 2.52173e-012
Gmin = 2.70769e-013
Gmin = 0
Gmin stepping succeeded in finding the operating point.

Ignoring empty pin current: Ix(u1:1)
Ignoring empty pin current: Ix(u1:2)
Ignoring empty pin current: Ix(u1:1)
Ignoring empty pin current: Ix(u1:2)

Date: Tue Feb 25 12:32:07 2020
Total elapsed time: 0.184 seconds.

tnom = 27
temp = 27
method = modified trap
totiter = 3707
traniter = 3327
tranpoints = 1631
accept = 1502
rejected = 129
matrix size = 8
fillins = 6
solver = Normal
Matrix Compiler1: 710 bytes object code size  0.2/0.2/[0.1]
Matrix Compiler2: 684 bytes object code size  0.2/0.2/[0.2]

